<?xml version="1.0" encoding="UTF-8"?>

<!-- generated on 2021-12-31 11:41:31 by Eclipse SUMO netedit Version 1.10.0
<configuration xmlns:xsi="http://www.w3.org/2001/XMLSchema-instance" xsi:noNamespaceSchemaLocation="http://sumo.dlr.de/xsd/netconvertConfiguration.xsd">

    <input>
        <sumo-net-file value="/home/my/src/SUMOTutorials/Reroute/reroute.net.xml"/>
    </input>

    <output>
        <output-file value="/home/my/src/SUMOTutorials/Reroute/reroute.net.xml"/>
    </output>

    <processing>
        <geometry.min-radius.fix.railways value="false"/>
        <geometry.max-grade.fix value="false"/>
        <offset.disable-normalization value="true"/>
        <lefthand value="false"/>
    </processing>

    <junctions>
        <no-turnarounds value="true"/>
        <junctions.corner-detail value="5"/>
        <junctions.limit-turn-speed value="5.5"/>
        <rectangular-lane-cut value="false"/>
    </junctions>

    <pedestrian>
        <walkingareas value="false"/>
    </pedestrian>

    <netedit>
        <route-files value="/home/my/src/SUMOTutorials/Reroute/reroute.rou.xml"/>
    </netedit>

    <report>
        <aggregate-warnings value="5"/>
    </report>

</configuration>
-->

<net version="1.9" junctionCornerDetail="5" limitTurnSpeed="5.50" xmlns:xsi="http://www.w3.org/2001/XMLSchema-instance" xsi:noNamespaceSchemaLocation="http://sumo.dlr.de/xsd/net_file.xsd">

    <location netOffset="0.00,0.00" convBoundary="0.00,0.00,200.00,50.00" origBoundary="-10000000000.00,-10000000000.00,10000000000.00,10000000000.00" projParameter="!"/>

    <edge id=":gneJ1_0" function="internal">
        <lane id=":gneJ1_0_0" index="0" speed="13.89" length="7.84" shape="48.34,-1.60 56.18,-1.60"/>
    </edge>
    <edge id=":gneJ1_1" function="internal">
        <lane id=":gneJ1_1_0" index="0" speed="9.11" length="7.49" shape="48.34,-1.60 49.60,-1.36 51.06,-0.62 52.71,0.60 54.57,2.30"/>
    </edge>
    <edge id=":gneJ2_0" function="internal">
        <lane id=":gneJ2_0_0" index="0" speed="13.89" length="7.84" shape="143.82,-1.60 151.66,-1.60"/>
    </edge>
    <edge id=":gneJ2_1" function="internal">
        <lane id=":gneJ2_1_0" index="0" speed="9.11" length="3.52" shape="145.43,2.30 147.29,0.60 148.09,0.00"/>
    </edge>
    <edge id=":gneJ2_2" function="internal">
        <lane id=":gneJ2_2_0" index="0" speed="9.11" length="3.96" shape="148.09,0.00 148.94,-0.62 150.40,-1.36 151.66,-1.60"/>
    </edge>
    <edge id=":gneJ3_0" function="internal">
        <lane id=":gneJ3_0_0" index="0" speed="3.90" length="2.58" shape="98.87,46.61 99.43,47.03 100.00,47.17 100.57,47.03 101.13,46.61"/>
    </edge>
    <edge id=":gneJ4_0" function="internal">
        <lane id=":gneJ4_0_0" index="0" speed="13.89" length="0.10" shape="100.00,-1.60 100.00,-1.60"/>
    </edge>

    <edge id="gneE0" from="start" to="gneJ1" priority="-1">
        <lane id="gneE0_0" index="0" speed="13.89" length="48.34" shape="0.00,-1.60 48.34,-1.60"/>
    </edge>
    <edge id="gneE1" from="gneJ1" to="gneJ4" priority="-1">
        <lane id="gneE1_0" index="0" speed="13.89" length="43.82" shape="56.18,-1.60 100.00,-1.60"/>
    </edge>
    <edge id="gneE2" from="gneJ1" to="gneJ3" priority="-1">
        <lane id="gneE2_0" index="0" speed="13.89" length="62.65" shape="54.57,2.30 98.87,46.61"/>
    </edge>
    <edge id="gneE3" from="gneJ3" to="gneJ2" priority="-1">
        <lane id="gneE3_0" index="0" speed="13.89" length="62.65" shape="101.13,46.61 145.43,2.30"/>
    </edge>
    <edge id="gneE4" from="gneJ2" to="end" priority="-1">
        <lane id="gneE4_0" index="0" speed="13.89" length="48.34" shape="151.66,-1.60 200.00,-1.60"/>
    </edge>
    <edge id="gneE5" from="gneJ4" to="gneJ2" priority="-1">
        <lane id="gneE5_0" index="0" speed="13.89" length="43.82" shape="100.00,-1.60 143.82,-1.60"/>
    </edge>

    <junction id="end" type="dead_end" x="200.00" y="0.00" incLanes="gneE4_0" intLanes="" shape="200.00,-3.20 200.00,0.00"/>
    <junction id="gneJ1" type="priority" x="50.00" y="0.00" incLanes="gneE0_0" intLanes=":gneJ1_0_0 :gneJ1_1_0" shape="53.43,3.43 55.70,1.17 55.23,0.52 55.23,0.29 55.39,0.13 55.71,0.03 56.18,0.00 56.18,-3.20 48.34,-3.20 48.34,0.00 49.65,0.38 50.44,0.86 51.34,1.53 52.34,2.38">
        <request index="0" response="00" foes="00" cont="0"/>
        <request index="1" response="00" foes="00" cont="0"/>
    </junction>
    <junction id="gneJ2" type="priority" x="150.00" y="0.00" incLanes="gneE5_0 gneE3_0" intLanes=":gneJ2_0_0 :gneJ2_2_0" shape="151.66,0.00 151.66,-3.20 143.82,-3.20 143.82,0.00 144.61,0.13 144.77,0.29 144.77,0.52 144.61,0.81 144.30,1.17 146.57,3.43 148.17,1.58 148.77,0.90 149.45,0.41 150.36,0.10">
        <request index="0" response="00" foes="10" cont="0"/>
        <request index="1" response="01" foes="01" cont="1"/>
    </junction>
    <junction id="gneJ3" type="priority" x="100.00" y="50.00" incLanes="gneE2_0" intLanes=":gneJ3_0_0" shape="102.26,47.74 100.00,45.47 97.74,47.74 99.25,48.74 100.00,48.87 100.75,48.74 101.51,48.37">
        <request index="0" response="0" foes="0" cont="0"/>
    </junction>
    <junction id="gneJ4" type="priority" x="100.00" y="0.00" incLanes="gneE1_0" intLanes=":gneJ4_0_0" shape="100.00,0.00 100.00,-3.20 100.00,0.00">
        <request index="0" response="0" foes="0" cont="0"/>
    </junction>
    <junction id="start" type="dead_end" x="0.00" y="0.00" incLanes="" intLanes="" shape="0.00,0.00 0.00,-3.20"/>

    <junction id=":gneJ2_2_0" type="internal" x="148.09" y="0.00" incLanes=":gneJ2_1_0 gneE5_0" intLanes=":gneJ2_0_0"/>

    <connection from="gneE0" to="gneE1" fromLane="0" toLane="0" via=":gneJ1_0_0" dir="s" state="M"/>
    <connection from="gneE0" to="gneE2" fromLane="0" toLane="0" via=":gneJ1_1_0" dir="l" state="M"/>
    <connection from="gneE1" to="gneE5" fromLane="0" toLane="0" via=":gneJ4_0_0" dir="s" state="M"/>
    <connection from="gneE2" to="gneE3" fromLane="0" toLane="0" via=":gneJ3_0_0" dir="r" state="M"/>
    <connection from="gneE3" to="gneE4" fromLane="0" toLane="0" via=":gneJ2_1_0" dir="l" state="m"/>
    <connection from="gneE5" to="gneE4" fromLane="0" toLane="0" via=":gneJ2_0_0" dir="s" state="M"/>

    <connection from=":gneJ1_0" to="gneE1" fromLane="0" toLane="0" dir="s" state="M"/>
    <connection from=":gneJ1_1" to="gneE2" fromLane="0" toLane="0" dir="l" state="M"/>
    <connection from=":gneJ2_0" to="gneE4" fromLane="0" toLane="0" dir="s" state="M"/>
    <connection from=":gneJ2_1" to="gneE4" fromLane="0" toLane="0" via=":gneJ2_2_0" dir="l" state="m"/>
    <connection from=":gneJ2_2" to="gneE4" fromLane="0" toLane="0" dir="l" state="M"/>
    <connection from=":gneJ3_0" to="gneE3" fromLane="0" toLane="0" dir="r" state="M"/>
    <connection from=":gneJ4_0" to="gneE5" fromLane="0" toLane="0" dir="s" state="M"/>

</net>
