<?xml version="1.0" encoding="UTF-8"?>

<!-- generated on 2021-12-31 14:40:55 by Eclipse SUMO netedit Version 1.10.0
<configuration xmlns:xsi="http://www.w3.org/2001/XMLSchema-instance" xsi:noNamespaceSchemaLocation="http://sumo.dlr.de/xsd/netconvertConfiguration.xsd">

    <input>
        <sumo-net-file value="/home/my/src/SUMOTutorials/Reroute_2/reroute.net.xml"/>
    </input>

    <output>
        <output-file value="/home/my/src/SUMOTutorials/Reroute_2/reroute.net.xml"/>
    </output>

    <processing>
        <geometry.min-radius.fix.railways value="false"/>
        <geometry.max-grade.fix value="false"/>
        <offset.disable-normalization value="true"/>
        <lefthand value="false"/>
    </processing>

    <junctions>
        <no-turnarounds value="true"/>
        <junctions.corner-detail value="5"/>
        <junctions.limit-turn-speed value="5.5"/>
        <rectangular-lane-cut value="false"/>
    </junctions>

    <pedestrian>
        <walkingareas value="false"/>
    </pedestrian>

    <report>
        <aggregate-warnings value="5"/>
    </report>

</configuration>
-->

<net version="1.9" junctionCornerDetail="5" limitTurnSpeed="5.50" xmlns:xsi="http://www.w3.org/2001/XMLSchema-instance" xsi:noNamespaceSchemaLocation="http://sumo.dlr.de/xsd/net_file.xsd">

    <location netOffset="0.00,0.00" convBoundary="0.00,0.00,400.00,50.00" origBoundary="-10000000000.00,-10000000000.00,10000000000.00,10000000000.00" projParameter="!"/>

    <edge id=":gneJ1_0" function="internal">
        <lane id=":gneJ1_0_0" index="0" speed="13.89" length="7.84" shape="198.34,-1.60 206.18,-1.60"/>
    </edge>
    <edge id=":gneJ1_1" function="internal">
        <lane id=":gneJ1_1_0" index="0" speed="9.11" length="7.49" shape="198.34,-1.60 199.60,-1.36 201.06,-0.62 202.71,0.60 204.57,2.30"/>
    </edge>
    <edge id=":gneJ2_0" function="internal">
        <lane id=":gneJ2_0_0" index="0" speed="13.89" length="7.84" shape="293.82,-1.60 301.66,-1.60"/>
    </edge>
    <edge id=":gneJ2_1" function="internal">
        <lane id=":gneJ2_1_0" index="0" speed="9.11" length="3.52" shape="295.43,2.30 297.29,0.60 298.09,0.00"/>
    </edge>
    <edge id=":gneJ2_2" function="internal">
        <lane id=":gneJ2_2_0" index="0" speed="9.11" length="3.96" shape="298.09,0.00 298.94,-0.62 300.40,-1.36 301.66,-1.60"/>
    </edge>
    <edge id=":gneJ3_0" function="internal">
        <lane id=":gneJ3_0_0" index="0" speed="3.90" length="2.58" shape="248.87,46.61 249.43,47.03 250.00,47.17 250.57,47.03 251.13,46.61"/>
    </edge>
    <edge id=":gneJ4_0" function="internal">
        <lane id=":gneJ4_0_0" index="0" speed="13.89" length="0.10" shape="250.00,-1.60 250.00,-1.60"/>
    </edge>

    <edge id="gneE0" from="start" to="gneJ1" priority="-1">
        <lane id="gneE0_0" index="0" speed="13.89" length="198.34" shape="0.00,-1.60 198.34,-1.60"/>
    </edge>
    <edge id="gneE1" from="gneJ1" to="gneJ4" priority="-1">
        <lane id="gneE1_0" index="0" speed="13.89" length="43.82" shape="206.18,-1.60 250.00,-1.60"/>
    </edge>
    <edge id="gneE2" from="gneJ1" to="gneJ3" priority="-1">
        <lane id="gneE2_0" index="0" speed="13.89" length="62.65" shape="204.57,2.30 248.87,46.61"/>
    </edge>
    <edge id="gneE3" from="gneJ3" to="gneJ2" priority="-1">
        <lane id="gneE3_0" index="0" speed="13.89" length="62.65" shape="251.13,46.61 295.43,2.30"/>
    </edge>
    <edge id="gneE4" from="gneJ2" to="end" priority="-1">
        <lane id="gneE4_0" index="0" speed="13.89" length="98.34" shape="301.66,-1.60 400.00,-1.60"/>
    </edge>
    <edge id="gneE5" from="gneJ4" to="gneJ2" priority="-1">
        <lane id="gneE5_0" index="0" speed="13.89" length="43.82" shape="250.00,-1.60 293.82,-1.60"/>
    </edge>

    <junction id="end" type="dead_end" x="400.00" y="0.00" incLanes="gneE4_0" intLanes="" shape="400.00,-3.20 400.00,0.00"/>
    <junction id="gneJ1" type="priority" x="200.00" y="0.00" incLanes="gneE0_0" intLanes=":gneJ1_0_0 :gneJ1_1_0" shape="203.43,3.43 205.70,1.17 205.23,0.52 205.23,0.29 205.39,0.13 205.71,0.03 206.18,0.00 206.18,-3.20 198.34,-3.20 198.34,0.00 200.55,0.41 201.23,0.90 201.83,1.58 202.52,2.43">
        <request index="0" response="00" foes="00" cont="0"/>
        <request index="1" response="00" foes="00" cont="0"/>
    </junction>
    <junction id="gneJ2" type="priority" x="300.00" y="0.00" incLanes="gneE5_0 gneE3_0" intLanes=":gneJ2_0_0 :gneJ2_2_0" shape="301.66,0.00 301.66,-3.20 293.82,-3.20 293.82,0.00 294.61,0.13 294.77,0.29 294.77,0.52 294.61,0.81 294.30,1.17 296.57,3.43 298.17,1.58 298.77,0.90 299.45,0.41 300.36,0.10">
        <request index="0" response="00" foes="10" cont="0"/>
        <request index="1" response="01" foes="01" cont="1"/>
    </junction>
    <junction id="gneJ3" type="priority" x="250.00" y="50.00" incLanes="gneE2_0" intLanes=":gneJ3_0_0" shape="252.26,47.74 250.00,45.47 247.74,47.74 249.25,48.74 250.00,48.87 250.75,48.74 251.51,48.37">
        <request index="0" response="0" foes="0" cont="0"/>
    </junction>
    <junction id="gneJ4" type="priority" x="250.00" y="0.00" incLanes="gneE1_0" intLanes=":gneJ4_0_0" shape="250.00,0.00 250.00,-3.20 250.00,0.00">
        <request index="0" response="0" foes="0" cont="0"/>
    </junction>
    <junction id="start" type="dead_end" x="0.00" y="0.00" incLanes="" intLanes="" shape="0.00,0.00 0.00,-3.20"/>

    <junction id=":gneJ2_2_0" type="internal" x="298.09" y="0.00" incLanes=":gneJ2_1_0 gneE5_0" intLanes=":gneJ2_0_0"/>

    <connection from="gneE0" to="gneE1" fromLane="0" toLane="0" via=":gneJ1_0_0" dir="s" state="M"/>
    <connection from="gneE0" to="gneE2" fromLane="0" toLane="0" via=":gneJ1_1_0" dir="l" state="M"/>
    <connection from="gneE1" to="gneE5" fromLane="0" toLane="0" via=":gneJ4_0_0" dir="s" state="M"/>
    <connection from="gneE2" to="gneE3" fromLane="0" toLane="0" via=":gneJ3_0_0" dir="r" state="M"/>
    <connection from="gneE3" to="gneE4" fromLane="0" toLane="0" via=":gneJ2_1_0" dir="l" state="m"/>
    <connection from="gneE5" to="gneE4" fromLane="0" toLane="0" via=":gneJ2_0_0" dir="s" state="M"/>

    <connection from=":gneJ1_0" to="gneE1" fromLane="0" toLane="0" dir="s" state="M"/>
    <connection from=":gneJ1_1" to="gneE2" fromLane="0" toLane="0" dir="l" state="M"/>
    <connection from=":gneJ2_0" to="gneE4" fromLane="0" toLane="0" dir="s" state="M"/>
    <connection from=":gneJ2_1" to="gneE4" fromLane="0" toLane="0" via=":gneJ2_2_0" dir="l" state="m"/>
    <connection from=":gneJ2_2" to="gneE4" fromLane="0" toLane="0" dir="l" state="M"/>
    <connection from=":gneJ3_0" to="gneE3" fromLane="0" toLane="0" dir="r" state="M"/>
    <connection from=":gneJ4_0" to="gneE5" fromLane="0" toLane="0" dir="s" state="M"/>

</net>
