<?xml version="1.0" encoding="UTF-8"?>

<!-- generated on 2022-01-04 13:05:07 by Eclipse SUMO netedit Version 1.10.0
<configuration xmlns:xsi="http://www.w3.org/2001/XMLSchema-instance" xsi:noNamespaceSchemaLocation="http://sumo.dlr.de/xsd/netconvertConfiguration.xsd">

    <input>
        <sumo-net-file value="/home/my/src/VANETTutorials/simulations/smoothed_ring_RSU/ring.net.xml"/>
    </input>

    <output>
        <output-file value="/home/my/src/VANETTutorials/simulations/smoothed_ring_RSU/ring.net.xml"/>
    </output>

    <processing>
        <geometry.min-radius.fix.railways value="false"/>
        <geometry.max-grade.fix value="false"/>
        <offset.disable-normalization value="true"/>
        <lefthand value="false"/>
    </processing>

    <junctions>
        <no-turnarounds value="true"/>
        <junctions.corner-detail value="5"/>
        <junctions.limit-turn-speed value="5.5"/>
        <rectangular-lane-cut value="false"/>
    </junctions>

    <pedestrian>
        <walkingareas value="false"/>
    </pedestrian>

    <netedit>
        <additional-files value="/home/my/src/VANETTutorials/simulations/smoothed_ring_RSU/ring.add.xml"/>
        <route-files value="/home/my/src/VANETTutorials/simulations/smoothed_ring_RSU/ring.rou.xml"/>
    </netedit>

    <report>
        <aggregate-warnings value="5"/>
    </report>

</configuration>
-->

<net version="1.9" junctionCornerDetail="5" limitTurnSpeed="5.50" xmlns:xsi="http://www.w3.org/2001/XMLSchema-instance" xsi:noNamespaceSchemaLocation="http://sumo.dlr.de/xsd/net_file.xsd">

    <location netOffset="0.00,0.00" convBoundary="-41.38,-41.58,41.38,41.38" origBoundary="-10000000000.00,-10000000000.00,10000000000.00,10000000000.00" projParameter="!"/>

    <edge id=":bottom_0" function="internal">
        <lane id=":bottom_0_0" index="0" speed="13.89" length="3.10" shape="-0.13,-42.97 2.97,-43.04"/>
    </edge>
    <edge id=":left_0" function="internal">
        <lane id=":left_0_0" index="0" speed="13.89" length="0.18" shape="-42.98,0.09 -42.98,0.03 -42.98,-0.01 -42.98,-0.04 -42.98,-0.10"/>
    </edge>
    <edge id=":right_0" function="internal">
        <lane id=":right_0_0" index="0" speed="13.89" length="0.12" shape="42.98,-0.04 42.98,0.08"/>
    </edge>
    <edge id=":top_0" function="internal">
        <lane id=":top_0_0" index="0" speed="13.89" length="0.14" shape="0.07,42.98 0.03,42.98 -0.00,42.98 -0.03,42.98 -0.07,42.98"/>
    </edge>

    <edge id="edge1" from="top" to="left" priority="-1" shape="0.00,41.38 -11.20,40.86 -19.40,38.70 -28.66,35.15 -33.57,30.83 -37.18,25.24 -39.98,17.77 -40.84,9.96 -41.38,0.00">
        <lane id="edge1_0" index="0" speed="13.89" length="70.98" shape="-0.07,42.98 -11.44,42.45 -19.89,40.23 -29.50,36.54 -34.79,31.88 -38.62,25.96 -41.55,18.14 -42.44,10.09 -42.98,0.09"/>
    </edge>
    <edge id="edge2" from="left" to="bottom" priority="-1" shape="-41.38,0.00 -40.82,-9.14 -40.00,-15.73 -37.20,-22.56 -33.69,-28.28 -28.36,-33.59 -20.25,-37.83 -12.35,-40.35 0.00,-41.38">
        <lane id="edge2_0" index="0" speed="13.89" length="69.54" shape="-42.98,-0.10 -42.41,-9.29 -41.56,-16.14 -38.63,-23.29 -34.95,-29.28 -29.32,-34.90 -20.87,-39.31 -12.66,-41.93 -0.13,-42.97"/>
    </edge>
    <edge id="edge3" from="bottom" to="right" priority="-1" shape="0.00,-41.38 9.95,-41.58 19.00,-40.50 26.13,-38.10 32.84,-33.36 38.15,-26.92 40.21,-19.76 41.06,-11.76 41.38,0.00">
        <lane id="edge3_0" index="0" speed="13.89" length="69.93" shape="2.97,-43.04 10.03,-43.18 19.35,-42.07 26.86,-39.54 33.94,-34.54 39.60,-27.68 41.79,-20.07 42.66,-11.87 42.98,-0.04"/>
    </edge>
    <edge id="edge4" from="right" to="top" priority="-1" shape="41.38,0.00 40.89,10.36 38.53,17.82 35.77,24.21 30.87,30.03 23.92,35.60 16.95,38.76 9.26,40.98 0.00,41.38">
        <lane id="edge4_0" index="0" speed="13.89" length="68.98" shape="42.98,0.08 42.48,10.64 40.03,18.38 37.15,25.06 31.99,31.18 24.76,36.97 17.51,40.27 9.52,42.57 0.07,42.98"/>
    </edge>

    <junction id="bottom" type="priority" x="0.00" y="-41.38" incLanes="edge2_0" intLanes=":bottom_0_0" shape="3.00,-41.44 2.94,-44.64 -0.27,-44.57 0.00,-41.38">
        <request index="0" response="0" foes="0" cont="0"/>
    </junction>
    <junction id="left" type="priority" x="-41.38" y="0.00" incLanes="edge1_0" intLanes=":left_0_0" shape="-44.58,0.17 -41.38,0.00 -44.57,-0.20 -44.58,-0.06 -44.58,0.04">
        <request index="0" response="0" foes="0" cont="0"/>
    </junction>
    <junction id="right" type="priority" x="41.38" y="0.00" incLanes="edge3_0" intLanes=":right_0_0" shape="44.58,-0.09 41.38,0.00 44.58,0.15">
        <request index="0" response="0" foes="0" cont="0"/>
    </junction>
    <junction id="top" type="priority" x="0.00" y="41.38" incLanes="edge4_0" intLanes=":top_0_0" shape="0.14,44.58 0.00,41.38 -0.15,44.58 -0.01,44.58">
        <request index="0" response="0" foes="0" cont="0"/>
    </junction>

    <connection from="edge1" to="edge2" fromLane="0" toLane="0" via=":left_0_0" dir="s" state="M"/>
    <connection from="edge2" to="edge3" fromLane="0" toLane="0" via=":bottom_0_0" dir="s" state="M"/>
    <connection from="edge3" to="edge4" fromLane="0" toLane="0" via=":right_0_0" dir="s" state="M"/>
    <connection from="edge4" to="edge1" fromLane="0" toLane="0" via=":top_0_0" dir="s" state="M"/>

    <connection from=":bottom_0" to="edge3" fromLane="0" toLane="0" dir="s" state="M"/>
    <connection from=":left_0" to="edge2" fromLane="0" toLane="0" dir="s" state="M"/>
    <connection from=":right_0" to="edge4" fromLane="0" toLane="0" dir="s" state="M"/>
    <connection from=":top_0" to="edge1" fromLane="0" toLane="0" dir="s" state="M"/>

</net>
