<?xml version="1.0" encoding="UTF-8"?>

<!-- generated on 2022-01-04 12:58:16 by Eclipse SUMO netedit Version 1.10.0
<configuration xmlns:xsi="http://www.w3.org/2001/XMLSchema-instance" xsi:noNamespaceSchemaLocation="http://sumo.dlr.de/xsd/netconvertConfiguration.xsd">

    <input>
        <sumo-net-file value="/home/my/src/VANETTutorials/simulations/smoothed_ring_RSU/ring.net.xml"/>
    </input>

    <output>
        <output-file value="/home/my/src/VANETTutorials/simulations/smoothed_ring_RSU/ring.net.xml"/>
    </output>

    <processing>
        <geometry.min-radius.fix.railways value="false"/>
        <geometry.max-grade.fix value="false"/>
        <offset.disable-normalization value="true"/>
        <lefthand value="false"/>
    </processing>

    <junctions>
        <no-turnarounds value="true"/>
        <junctions.corner-detail value="5"/>
        <junctions.limit-turn-speed value="5.5"/>
        <rectangular-lane-cut value="false"/>
    </junctions>

    <pedestrian>
        <walkingareas value="false"/>
    </pedestrian>

    <netedit>
        <route-files value="/home/my/src/VANETTutorials/simulations/smoothed_ring_RSU/ring.rou.xml"/>
    </netedit>

    <report>
        <aggregate-warnings value="5"/>
    </report>

</configuration>
-->

<routes xmlns:xsi="http://www.w3.org/2001/XMLSchema-instance" xsi:noNamespaceSchemaLocation="http://sumo.dlr.de/xsd/routes_file.xsd">
    <route edges="edge1 edge2 edge3" color="yellow" id="route_0"/>
    <flow id="flow_0" begin="0.00" route="route_0" end="0.00" number="10"/>
</routes>
