<?xml version="1.0" encoding="UTF-8"?>

<!-- generated on 2022-01-04 18:12:36 by Eclipse SUMO netedit Version 1.10.0
<configuration xmlns:xsi="http://www.w3.org/2001/XMLSchema-instance" xsi:noNamespaceSchemaLocation="http://sumo.dlr.de/xsd/netconvertConfiguration.xsd">

    <input>
        <sumo-net-file value="/home/my/src/VANETTutorials/simulations/merge/merge.net.xml"/>
    </input>

    <output>
        <output-file value="/home/my/src/VANETTutorials/simulations/merge/merge.net.xml"/>
    </output>

    <processing>
        <geometry.min-radius.fix.railways value="false"/>
        <geometry.max-grade.fix value="false"/>
        <offset.disable-normalization value="true"/>
        <lefthand value="false"/>
    </processing>

    <junctions>
        <no-turnarounds value="true"/>
        <junctions.corner-detail value="5"/>
        <junctions.limit-turn-speed value="5.5"/>
        <rectangular-lane-cut value="false"/>
    </junctions>

    <pedestrian>
        <walkingareas value="false"/>
    </pedestrian>

    <netedit>
        <route-files value="/home/my/src/VANETTutorials/simulations/merge/merge.rou.xml"/>
    </netedit>

    <report>
        <aggregate-warnings value="5"/>
    </report>

</configuration>
-->

<routes xmlns:xsi="http://www.w3.org/2001/XMLSchema-instance" xsi:noNamespaceSchemaLocation="http://sumo.dlr.de/xsd/routes_file.xsd">
    <vType id="DEFAULT_VEHTYPE" maxSpeed="30.00" vClass="passenger" carFollowModel="IDM"/>
    <vType id="vType_0"/>
    <flow id="flow_0" begin="0.00" departSpeed="10.00" from="before_merge" to="after_merge" end="3600.00" vehsPerHour="2000.00"/>
    <flow id="flow_1" begin="0.00" from="merge" to="after_merge" end="3600.00" vehsPerHour="100.00"/>
</routes>
