<?xml version="1.0" encoding="UTF-8"?>

<!-- generated on 2021-12-02 14:59:13 by Eclipse SUMO netedit Version 1.10.0
<configuration xmlns:xsi="http://www.w3.org/2001/XMLSchema-instance" xsi:noNamespaceSchemaLocation="http://sumo.dlr.de/xsd/netconvertConfiguration.xsd">

    <input>
        <sumo-net-file value="/home/my/src/SUMOTutorials/Intro/ramps.net.xml"/>
    </input>

    <output>
        <output-file value="/home/my/src/SUMOTutorials/Intro/ramps.net.xml"/>
    </output>

    <processing>
        <geometry.min-radius.fix.railways value="false"/>
        <geometry.max-grade.fix value="false"/>
        <offset.disable-normalization value="true"/>
        <lefthand value="false"/>
    </processing>

    <junctions>
        <no-turnarounds value="true"/>
        <junctions.corner-detail value="5"/>
        <junctions.limit-turn-speed value="5.5"/>
        <rectangular-lane-cut value="false"/>
    </junctions>

    <pedestrian>
        <walkingareas value="false"/>
    </pedestrian>

    <netedit>
        <route-files value="/home/my/src/SUMOTutorials/Intro/ramps.rou.xml"/>
    </netedit>

    <report>
        <aggregate-warnings value="5"/>
    </report>

</configuration>
-->

<routes xmlns:xsi="http://www.w3.org/2001/XMLSchema-instance" xsi:noNamespaceSchemaLocation="http://sumo.dlr.de/xsd/routes_file.xsd">
    <flow id="flow_0" begin="0.00" departLane="random" departSpeed="30.00" arrivalLane="random" from="gneE1" to="gneE3" end="600.00" vehsPerHour="3498.54"/>
    <flow id="flow_1" begin="0.00" departLane="random" departSpeed="30.00" from="gneE1" to="gneE4" end="600.00" vehsPerHour="2000.00"/>
    <flow id="flow_2" begin="0.00" departSpeed="13.89" from="gneE5" to="gneE3" end="600.00" vehsPerHour="2000.00"/>
    <flow id="flow_3" begin="0.00" departSpeed="13.89" from="gneE5" to="gneE4" end="600.00" vehsPerHour="1000.00"/>
</routes>
